/*--------------------------------*- C++ -*----------------------------------*\
  =========                 |
  \\      /  F ield         | OpenFOAM: The Open Source CFD Toolbox
   \\    /   O peration     | Website:  https://openfoam.org
    \\  /    A nd           | Version:  7
     \\/     M anipulation  |
\*---------------------------------------------------------------------------*/
FoamFile
{
    version     2.0;
    format      ascii;
    class       dictionary;
    location    "system";
    object      setFieldsDict;
}
// * * * * * * * * * * * * * * * * * * * * * * * * * * * * * * * * * * * * * //

defaultFieldValues
(
    volScalarFieldValue T    600.0000000000
    volScalarFieldValue H      0.0000000000
    volScalarFieldValue H2     0.0285223875
    volScalarFieldValue O      0.0000000000
    volScalarFieldValue OH     0.0000000000
    volScalarFieldValue H2O    0.0000000000
    volScalarFieldValue O2     0.2263540070
    volScalarFieldValue HO2    0.0000000000
    volScalarFieldValue H2O2   0.0000000000
    volScalarFieldValue N2     0.7451236055
);

regions
(
    
);

// ************************************************************************* //
